* NGSPICE file created from PC_Adder.ext - technology: sky130A

* Black-box entry subcircuit for sky130_ef_sc_hd__decap_12 abstract view
.subckt sky130_ef_sc_hd__decap_12 VPWR VGND VPB VNB
.ends

* Black-box entry subcircuit for sky130_fd_sc_hd__fill_2 abstract view
.subckt sky130_fd_sc_hd__fill_2 VGND VNB VPB VPWR
.ends

* Black-box entry subcircuit for sky130_fd_sc_hd__decap_4 abstract view
.subckt sky130_fd_sc_hd__decap_4 VGND VNB VPB VPWR
.ends

* Black-box entry subcircuit for sky130_fd_sc_hd__nand2_1 abstract view
.subckt sky130_fd_sc_hd__nand2_1 A B VGND VNB VPB VPWR Y
.ends

* Black-box entry subcircuit for sky130_fd_sc_hd__decap_8 abstract view
.subckt sky130_fd_sc_hd__decap_8 VGND VNB VPB VPWR
.ends

* Black-box entry subcircuit for sky130_fd_sc_hd__fill_1 abstract view
.subckt sky130_fd_sc_hd__fill_1 VGND VNB VPB VPWR
.ends

* Black-box entry subcircuit for sky130_fd_sc_hd__tapvpwrvgnd_1 abstract view
.subckt sky130_fd_sc_hd__tapvpwrvgnd_1 VGND VPWR
.ends

* Black-box entry subcircuit for sky130_fd_sc_hd__o211a_1 abstract view
.subckt sky130_fd_sc_hd__o211a_1 A1 A2 B1 C1 VGND VNB VPB VPWR X
.ends

* Black-box entry subcircuit for sky130_fd_sc_hd__o21a_1 abstract view
.subckt sky130_fd_sc_hd__o21a_1 A1 A2 B1 VGND VNB VPB VPWR X
.ends

* Black-box entry subcircuit for sky130_fd_sc_hd__decap_6 abstract view
.subckt sky130_fd_sc_hd__decap_6 VGND VNB VPB VPWR
.ends

* Black-box entry subcircuit for sky130_fd_sc_hd__or2_1 abstract view
.subckt sky130_fd_sc_hd__or2_1 A B VGND VNB VPB VPWR X
.ends

* Black-box entry subcircuit for sky130_fd_sc_hd__nor2_1 abstract view
.subckt sky130_fd_sc_hd__nor2_1 A B VGND VNB VPB VPWR Y
.ends

* Black-box entry subcircuit for sky130_fd_sc_hd__decap_3 abstract view
.subckt sky130_fd_sc_hd__decap_3 VGND VNB VPB VPWR
.ends

* Black-box entry subcircuit for sky130_fd_sc_hd__buf_2 abstract view
.subckt sky130_fd_sc_hd__buf_2 A VGND VNB VPB VPWR X
.ends

* Black-box entry subcircuit for sky130_fd_sc_hd__a21o_1 abstract view
.subckt sky130_fd_sc_hd__a21o_1 A1 A2 B1 VGND VNB VPB VPWR X
.ends

* Black-box entry subcircuit for sky130_fd_sc_hd__xnor2_1 abstract view
.subckt sky130_fd_sc_hd__xnor2_1 A B VGND VNB VPB VPWR Y
.ends

* Black-box entry subcircuit for sky130_fd_sc_hd__a211oi_2 abstract view
.subckt sky130_fd_sc_hd__a211oi_2 A1 A2 B1 C1 VGND VNB VPB VPWR Y
.ends

* Black-box entry subcircuit for sky130_fd_sc_hd__xor2_1 abstract view
.subckt sky130_fd_sc_hd__xor2_1 A B VGND VNB VPB VPWR X
.ends

* Black-box entry subcircuit for sky130_fd_sc_hd__a21oi_1 abstract view
.subckt sky130_fd_sc_hd__a21oi_1 A1 A2 B1 VGND VNB VPB VPWR Y
.ends

* Black-box entry subcircuit for sky130_fd_sc_hd__and2_1 abstract view
.subckt sky130_fd_sc_hd__and2_1 A B VGND VNB VPB VPWR X
.ends

* Black-box entry subcircuit for sky130_fd_sc_hd__a21bo_1 abstract view
.subckt sky130_fd_sc_hd__a21bo_1 A1 A2 B1_N VGND VNB VPB VPWR X
.ends

* Black-box entry subcircuit for sky130_fd_sc_hd__nand2b_1 abstract view
.subckt sky130_fd_sc_hd__nand2b_1 A_N B VGND VNB VPB VPWR Y
.ends

* Black-box entry subcircuit for sky130_fd_sc_hd__o311a_1 abstract view
.subckt sky130_fd_sc_hd__o311a_1 A1 A2 A3 B1 C1 VGND VNB VPB VPWR X
.ends

* Black-box entry subcircuit for sky130_fd_sc_hd__a21oi_4 abstract view
.subckt sky130_fd_sc_hd__a21oi_4 A1 A2 B1 VGND VNB VPB VPWR Y
.ends

* Black-box entry subcircuit for sky130_fd_sc_hd__o31a_1 abstract view
.subckt sky130_fd_sc_hd__o31a_1 A1 A2 A3 B1 VGND VNB VPB VPWR X
.ends

* Black-box entry subcircuit for sky130_fd_sc_hd__o211ai_2 abstract view
.subckt sky130_fd_sc_hd__o211ai_2 A1 A2 B1 C1 VGND VNB VPB VPWR Y
.ends

* Black-box entry subcircuit for sky130_fd_sc_hd__o21ai_1 abstract view
.subckt sky130_fd_sc_hd__o21ai_1 A1 A2 B1 VGND VNB VPB VPWR Y
.ends

* Black-box entry subcircuit for sky130_fd_sc_hd__a21oi_2 abstract view
.subckt sky130_fd_sc_hd__a21oi_2 A1 A2 B1 VGND VNB VPB VPWR Y
.ends

* Black-box entry subcircuit for sky130_fd_sc_hd__o31ai_2 abstract view
.subckt sky130_fd_sc_hd__o31ai_2 A1 A2 A3 B1 VGND VNB VPB VPWR Y
.ends

* Black-box entry subcircuit for sky130_fd_sc_hd__a31o_1 abstract view
.subckt sky130_fd_sc_hd__a31o_1 A1 A2 A3 B1 VGND VNB VPB VPWR X
.ends

* Black-box entry subcircuit for sky130_fd_sc_hd__a211o_1 abstract view
.subckt sky130_fd_sc_hd__a211o_1 A1 A2 B1 C1 VGND VNB VPB VPWR X
.ends

* Black-box entry subcircuit for sky130_fd_sc_hd__clkbuf_1 abstract view
.subckt sky130_fd_sc_hd__clkbuf_1 A VGND VNB VPB VPWR X
.ends

* Black-box entry subcircuit for sky130_fd_sc_hd__or3_1 abstract view
.subckt sky130_fd_sc_hd__or3_1 A B C VGND VNB VPB VPWR X
.ends

* Black-box entry subcircuit for sky130_fd_sc_hd__or4_1 abstract view
.subckt sky130_fd_sc_hd__or4_1 A B C D VGND VNB VPB VPWR X
.ends

* Black-box entry subcircuit for sky130_fd_sc_hd__buf_1 abstract view
.subckt sky130_fd_sc_hd__buf_1 A VGND VNB VPB VPWR X
.ends

* Black-box entry subcircuit for sky130_fd_sc_hd__o31a_2 abstract view
.subckt sky130_fd_sc_hd__o31a_2 A1 A2 A3 B1 VGND VNB VPB VPWR X
.ends

* Black-box entry subcircuit for sky130_fd_sc_hd__inv_2 abstract view
.subckt sky130_fd_sc_hd__inv_2 A VGND VNB VPB VPWR Y
.ends

* Black-box entry subcircuit for sky130_fd_sc_hd__a211oi_1 abstract view
.subckt sky130_fd_sc_hd__a211oi_1 A1 A2 B1 C1 VGND VNB VPB VPWR Y
.ends

* Black-box entry subcircuit for sky130_fd_sc_hd__o221a_1 abstract view
.subckt sky130_fd_sc_hd__o221a_1 A1 A2 B1 B2 C1 VGND VNB VPB VPWR X
.ends

* Black-box entry subcircuit for sky130_fd_sc_hd__a31o_2 abstract view
.subckt sky130_fd_sc_hd__a31o_2 A1 A2 A3 B1 VGND VNB VPB VPWR X
.ends

* Black-box entry subcircuit for sky130_fd_sc_hd__o31ai_4 abstract view
.subckt sky130_fd_sc_hd__o31ai_4 A1 A2 A3 B1 VGND VNB VPB VPWR Y
.ends

* Black-box entry subcircuit for sky130_fd_sc_hd__o21bai_1 abstract view
.subckt sky130_fd_sc_hd__o21bai_1 A1 A2 B1_N VGND VNB VPB VPWR Y
.ends

* Black-box entry subcircuit for sky130_fd_sc_hd__or2_2 abstract view
.subckt sky130_fd_sc_hd__or2_2 A B VGND VNB VPB VPWR X
.ends

* Black-box entry subcircuit for sky130_fd_sc_hd__a22o_1 abstract view
.subckt sky130_fd_sc_hd__a22o_1 A1 A2 B1 B2 VGND VNB VPB VPWR X
.ends

* Black-box entry subcircuit for sky130_fd_sc_hd__and3_1 abstract view
.subckt sky130_fd_sc_hd__and3_1 A B C VGND VNB VPB VPWR X
.ends

* Black-box entry subcircuit for sky130_fd_sc_hd__nand2_2 abstract view
.subckt sky130_fd_sc_hd__nand2_2 A B VGND VNB VPB VPWR Y
.ends

* Black-box entry subcircuit for sky130_fd_sc_hd__clkbuf_4 abstract view
.subckt sky130_fd_sc_hd__clkbuf_4 A VGND VNB VPB VPWR X
.ends

.subckt PC_Adder VGND VPWR a[0] a[10] a[11] a[12] a[13] a[14] a[15] a[16] a[17] a[18]
+ a[19] a[1] a[20] a[21] a[22] a[23] a[24] a[25] a[26] a[27] a[28] a[29] a[2] a[30]
+ a[31] a[3] a[4] a[5] a[6] a[7] a[8] a[9] b[0] b[10] b[11] b[12] b[13] b[14] b[15]
+ b[16] b[17] b[18] b[19] b[1] b[20] b[21] b[22] b[23] b[24] b[25] b[26] b[27] b[28]
+ b[29] b[2] b[30] b[31] b[3] b[4] b[5] b[6] b[7] b[8] b[9] c[0] c[10] c[11] c[12]
+ c[13] c[14] c[15] c[16] c[17] c[18] c[19] c[1] c[20] c[21] c[22] c[23] c[24] c[25]
+ c[26] c[27] c[28] c[29] c[2] c[30] c[31] c[3] c[4] c[5] c[6] c[7] c[8] c[9]
XFILLER_0_27_93 VPWR VGND VPWR VGND sky130_ef_sc_hd__decap_12
XFILLER_0_43_81 VPWR VGND VPWR VGND sky130_ef_sc_hd__decap_12
XFILLER_0_17_233 VGND VGND VPWR VPWR sky130_fd_sc_hd__fill_2
XFILLER_0_7_81 VPWR VGND VPWR VGND sky130_ef_sc_hd__decap_12
XFILLER_0_40_291 VGND VGND VPWR VPWR sky130_fd_sc_hd__decap_4
XFILLER_0_2_108 VPWR VGND VPWR VGND sky130_ef_sc_hd__decap_12
X_294_ net18 net50 VGND VGND VPWR VPWR _115_ sky130_fd_sc_hd__nand2_1
XFILLER_0_23_225 VGND VGND VPWR VPWR sky130_fd_sc_hd__decap_8
XFILLER_0_23_247 VPWR VGND VPWR VGND sky130_ef_sc_hd__decap_12
XFILLER_0_48_15 VPWR VGND VPWR VGND sky130_ef_sc_hd__decap_12
XFILLER_0_64_69 VPWR VGND VPWR VGND sky130_ef_sc_hd__decap_12
XFILLER_0_3_39 VPWR VGND VPWR VGND sky130_ef_sc_hd__decap_12
XFILLER_0_58_177 VPWR VGND VPWR VGND sky130_ef_sc_hd__decap_12
XFILLER_0_13_51 VGND VGND VPWR VPWR sky130_fd_sc_hd__decap_4
XFILLER_0_49_111 VGND VGND VPWR VPWR sky130_fd_sc_hd__fill_1
XFILLER_0_64_169 VGND VGND VPWR VPWR sky130_fd_sc_hd__fill_2
XFILLER_0_64_125 VGND VGND VPWR VPWR sky130_fd_sc_hd__decap_8
XTAP_TAPCELL_ROW_5_162 VGND VPWR sky130_fd_sc_hd__tapvpwrvgnd_1
XFILLER_0_18_29 VPWR VGND VPWR VGND sky130_ef_sc_hd__decap_12
XFILLER_0_55_125 VPWR VGND VPWR VGND sky130_ef_sc_hd__decap_12
X_346_ _017_ _026_ _024_ _019_ VGND VGND VPWR VPWR _154_ sky130_fd_sc_hd__o211a_1
XTAP_TAPCELL_ROW_28_275 VGND VPWR sky130_fd_sc_hd__tapvpwrvgnd_1
XFILLER_0_55_169 VPWR VGND VPWR VGND sky130_ef_sc_hd__decap_12
X_277_ _090_ _095_ _100_ VGND VGND VPWR VPWR _101_ sky130_fd_sc_hd__o21a_1
XFILLER_0_11_217 VGND VGND VPWR VPWR sky130_fd_sc_hd__decap_6
XFILLER_0_59_69 VPWR VGND VPWR VGND sky130_ef_sc_hd__decap_12
XTAP_TAPCELL_ROW_19_231 VGND VPWR sky130_fd_sc_hd__tapvpwrvgnd_1
XFILLER_0_6_277 VPWR VGND VPWR VGND sky130_ef_sc_hd__decap_12
XFILLER_0_6_233 VPWR VGND VPWR VGND sky130_ef_sc_hd__decap_12
XFILLER_0_37_125 VPWR VGND VPWR VGND sky130_ef_sc_hd__decap_12
X_200_ net3 net35 VGND VGND VPWR VPWR _033_ sky130_fd_sc_hd__or2_1
XFILLER_0_52_139 VGND VGND VPWR VPWR sky130_fd_sc_hd__fill_1
XFILLER_0_37_169 VPWR VGND VPWR VGND sky130_ef_sc_hd__decap_12
XFILLER_0_45_49 VGND VGND VPWR VPWR sky130_fd_sc_hd__decap_6
XFILLER_0_0_29 VPWR VGND VPWR VGND sky130_ef_sc_hd__decap_12
X_329_ _137_ _144_ VGND VGND VPWR VPWR _145_ sky130_fd_sc_hd__nor2_1
XFILLER_0_51_161 VGND VGND VPWR VPWR sky130_fd_sc_hd__decap_6
XFILLER_0_3_225 VPWR VGND VPWR VGND sky130_ef_sc_hd__decap_12
XFILLER_0_10_41 VPWR VGND VPWR VGND sky130_ef_sc_hd__decap_12
XFILLER_0_10_85 VPWR VGND VPWR VGND sky130_ef_sc_hd__decap_12
XFILLER_0_36_6 VPWR VGND VPWR VGND sky130_ef_sc_hd__decap_12
XFILLER_0_59_261 VPWR VGND VPWR VGND sky130_ef_sc_hd__decap_12
XTAP_TAPCELL_ROW_47_370 VGND VPWR sky130_fd_sc_hd__tapvpwrvgnd_1
XFILLER_0_19_125 VPWR VGND VPWR VGND sky130_ef_sc_hd__decap_12
XFILLER_0_51_81 VPWR VGND VPWR VGND sky130_ef_sc_hd__decap_12
XFILLER_0_19_169 VPWR VGND VPWR VGND sky130_ef_sc_hd__decap_12
XTAP_TAPCELL_ROW_22_248 VGND VPWR sky130_fd_sc_hd__tapvpwrvgnd_1
XFILLER_0_34_139 VGND VGND VPWR VPWR sky130_fd_sc_hd__fill_1
XTAP_TAPCELL_ROW_13_204 VGND VPWR sky130_fd_sc_hd__tapvpwrvgnd_1
XFILLER_0_31_18 VPWR VGND VPWR VGND sky130_ef_sc_hd__decap_12
XFILLER_0_40_109 VPWR VGND VPWR VGND sky130_ef_sc_hd__decap_12
XFILLER_0_33_161 VGND VGND VPWR VPWR sky130_fd_sc_hd__decap_6
XFILLER_0_56_26 VGND VGND VPWR VPWR sky130_fd_sc_hd__fill_2
XFILLER_0_48_209 VPWR VGND VPWR VGND sky130_ef_sc_hd__decap_12
XTAP_TAPCELL_ROW_36_318 VGND VPWR sky130_fd_sc_hd__tapvpwrvgnd_1
XFILLER_0_56_297 VGND VGND VPWR VPWR sky130_fd_sc_hd__fill_2
XFILLER_0_56_253 VPWR VGND VPWR VGND sky130_ef_sc_hd__decap_12
XFILLER_0_16_139 VGND VGND VPWR VPWR sky130_fd_sc_hd__fill_1
XFILLER_0_31_109 VGND VGND VPWR VPWR sky130_fd_sc_hd__decap_3
XFILLER_0_47_275 VGND VGND VPWR VPWR sky130_fd_sc_hd__decap_4
XFILLER_0_62_289 VGND VGND VPWR VPWR sky130_fd_sc_hd__decap_8
XFILLER_0_62_245 VGND VGND VPWR VPWR sky130_fd_sc_hd__decap_6
XTAP_TAPCELL_ROW_50_387 VGND VPWR sky130_fd_sc_hd__tapvpwrvgnd_1
XFILLER_0_15_161 VGND VGND VPWR VPWR sky130_fd_sc_hd__decap_6
XFILLER_0_30_153 VPWR VGND VPWR VGND sky130_ef_sc_hd__decap_12
XFILLER_0_26_18 VGND VGND VPWR VPWR sky130_fd_sc_hd__decap_8
XFILLER_0_30_197 VPWR VGND VPWR VGND sky130_ef_sc_hd__decap_12
XFILLER_0_53_223 VGND VGND VPWR VPWR sky130_fd_sc_hd__fill_1
XTAP_TAPCELL_ROW_41_343 VGND VPWR sky130_fd_sc_hd__tapvpwrvgnd_1
XFILLER_0_38_253 VPWR VGND VPWR VGND sky130_ef_sc_hd__decap_12
XTAP_TAPCELL_ROW_64_457 VGND VPWR sky130_fd_sc_hd__tapvpwrvgnd_1
XFILLER_0_44_289 VGND VGND VPWR VPWR sky130_fd_sc_hd__decap_6
XFILLER_0_44_245 VGND VGND VPWR VPWR sky130_fd_sc_hd__decap_6
XFILLER_0_12_153 VPWR VGND VPWR VGND sky130_ef_sc_hd__decap_12
XFILLER_0_12_197 VPWR VGND VPWR VGND sky130_ef_sc_hd__decap_12
XTAP_TAPCELL_ROW_55_413 VGND VPWR sky130_fd_sc_hd__tapvpwrvgnd_1
XFILLER_0_35_223 VGND VGND VPWR VPWR sky130_fd_sc_hd__fill_1
Xoutput75 net75 VGND VGND VPWR VPWR c[19] sky130_fd_sc_hd__buf_2
Xoutput86 net86 VGND VGND VPWR VPWR c[29] sky130_fd_sc_hd__buf_2
XFILLER_0_41_237 VPWR VGND VPWR VGND sky130_ef_sc_hd__decap_12
XFILLER_0_26_245 VGND VGND VPWR VPWR sky130_fd_sc_hd__decap_6
XFILLER_0_26_289 VGND VGND VPWR VPWR sky130_fd_sc_hd__decap_6
XFILLER_0_43_93 VPWR VGND VPWR VGND sky130_ef_sc_hd__decap_12
XFILLER_0_17_223 VGND VGND VPWR VPWR sky130_fd_sc_hd__fill_1
XFILLER_0_7_93 VPWR VGND VPWR VGND sky130_ef_sc_hd__decap_12
X_293_ net18 net50 VGND VGND VPWR VPWR _114_ sky130_fd_sc_hd__or2_1
XFILLER_0_23_259 VPWR VGND VPWR VGND sky130_ef_sc_hd__decap_12
XFILLER_0_48_27 VGND VGND VPWR VPWR sky130_fd_sc_hd__fill_1
XFILLER_0_31_281 VGND VGND VPWR VPWR sky130_fd_sc_hd__decap_4
XFILLER_0_58_189 VGND VGND VPWR VPWR sky130_fd_sc_hd__decap_6
XFILLER_0_49_167 VGND VGND VPWR VPWR sky130_fd_sc_hd__fill_1
XPHY_EDGE_ROW_19_Left_84 VGND VGND VPWR VPWR sky130_fd_sc_hd__decap_3
XFILLER_0_13_281 VPWR VGND VPWR VGND sky130_ef_sc_hd__decap_12
XTAP_TAPCELL_ROW_5_163 VGND VPWR sky130_fd_sc_hd__tapvpwrvgnd_1
XFILLER_0_34_18 VGND VGND VPWR VPWR sky130_fd_sc_hd__fill_1
XFILLER_0_34_29 VPWR VGND VPWR VGND sky130_ef_sc_hd__decap_12
XFILLER_0_55_137 VPWR VGND VPWR VGND sky130_ef_sc_hd__decap_12
X_276_ _084_ _092_ _093_ VGND VGND VPWR VPWR _100_ sky130_fd_sc_hd__a21o_1
X_345_ _020_ _153_ VGND VGND VPWR VPWR net92 sky130_fd_sc_hd__xnor2_1
XTAP_TAPCELL_ROW_28_276 VGND VPWR sky130_fd_sc_hd__tapvpwrvgnd_1
XFILLER_0_63_181 VPWR VGND VPWR VGND sky130_ef_sc_hd__decap_12
XTAP_TAPCELL_ROW_19_232 VGND VPWR sky130_fd_sc_hd__tapvpwrvgnd_1
XFILLER_0_40_83 VGND VGND VPWR VPWR sky130_fd_sc_hd__fill_1
XFILLER_0_6_289 VGND VGND VPWR VPWR sky130_fd_sc_hd__decap_8
XFILLER_0_6_245 VGND VGND VPWR VPWR sky130_fd_sc_hd__decap_6
XFILLER_0_49_81 VPWR VGND VPWR VGND sky130_ef_sc_hd__decap_12
XFILLER_0_10_251 VGND VGND VPWR VPWR sky130_fd_sc_hd__fill_1
XFILLER_0_10_295 VGND VGND VPWR VPWR sky130_fd_sc_hd__fill_1
XPHY_EDGE_ROW_12_Right_12 VGND VGND VPWR VPWR sky130_fd_sc_hd__decap_3
XFILLER_0_4_83 VGND VGND VPWR VPWR sky130_fd_sc_hd__fill_1
XPHY_EDGE_ROW_21_Right_21 VGND VGND VPWR VPWR sky130_fd_sc_hd__decap_3
XFILLER_0_37_137 VPWR VGND VPWR VGND sky130_ef_sc_hd__decap_12
XPHY_EDGE_ROW_4_Left_69 VGND VGND VPWR VPWR sky130_fd_sc_hd__decap_3
XFILLER_0_60_195 VGND VGND VPWR VPWR sky130_fd_sc_hd__fill_1
XFILLER_0_45_181 VPWR VGND VPWR VGND sky130_ef_sc_hd__decap_12
XPHY_EDGE_ROW_30_Right_30 VGND VGND VPWR VPWR sky130_fd_sc_hd__decap_3
XFILLER_0_61_27 VPWR VGND VPWR VGND sky130_ef_sc_hd__decap_12
X_259_ _083_ _084_ VGND VGND VPWR VPWR _085_ sky130_fd_sc_hd__nand2_1
X_328_ _129_ _136_ _138_ _131_ VGND VGND VPWR VPWR _144_ sky130_fd_sc_hd__a211oi_2
XFILLER_0_3_237 VPWR VGND VPWR VGND sky130_ef_sc_hd__decap_12
XFILLER_0_10_53 VPWR VGND VPWR VGND sky130_ef_sc_hd__decap_12
XFILLER_0_10_97 VPWR VGND VPWR VGND sky130_ef_sc_hd__decap_12
XFILLER_0_59_273 VGND VGND VPWR VPWR sky130_fd_sc_hd__decap_6
XTAP_TAPCELL_ROW_47_371 VGND VPWR sky130_fd_sc_hd__tapvpwrvgnd_1
XFILLER_0_19_137 VPWR VGND VPWR VGND sky130_ef_sc_hd__decap_12
XTAP_TAPCELL_ROW_22_249 VGND VPWR sky130_fd_sc_hd__tapvpwrvgnd_1
XFILLER_0_51_93 VPWR VGND VPWR VGND sky130_ef_sc_hd__decap_12
XFILLER_0_42_195 VGND VGND VPWR VPWR sky130_fd_sc_hd__fill_1
XFILLER_0_27_181 VPWR VGND VPWR VGND sky130_ef_sc_hd__decap_12
XFILLER_0_25_107 VGND VGND VPWR VPWR sky130_fd_sc_hd__decap_4
XFILLER_0_56_265 VPWR VGND VPWR VGND sky130_ef_sc_hd__decap_12
XFILLER_0_56_221 VPWR VGND VPWR VGND sky130_ef_sc_hd__decap_12
XTAP_TAPCELL_ROW_36_319 VGND VPWR sky130_fd_sc_hd__tapvpwrvgnd_1
XFILLER_0_24_195 VGND VGND VPWR VPWR sky130_fd_sc_hd__fill_1
XFILLER_0_1_51 VGND VGND VPWR VPWR sky130_fd_sc_hd__decap_4
XTAP_TAPCELL_ROW_50_388 VGND VPWR sky130_fd_sc_hd__tapvpwrvgnd_1
XFILLER_0_30_121 VPWR VGND VPWR VGND sky130_ef_sc_hd__decap_12
XFILLER_0_30_165 VPWR VGND VPWR VGND sky130_ef_sc_hd__decap_12
XFILLER_0_42_29 VGND VGND VPWR VPWR sky130_fd_sc_hd__decap_4
XFILLER_0_38_265 VPWR VGND VPWR VGND sky130_ef_sc_hd__decap_12
XFILLER_0_38_221 VPWR VGND VPWR VGND sky130_ef_sc_hd__decap_12
XFILLER_0_53_279 VGND VGND VPWR VPWR sky130_fd_sc_hd__fill_1
XTAP_TAPCELL_ROW_41_344 VGND VPWR sky130_fd_sc_hd__tapvpwrvgnd_1
XFILLER_0_38_298 VGND VGND VPWR VPWR sky130_fd_sc_hd__fill_1
XPHY_EDGE_ROW_7_Left_72 VGND VGND VPWR VPWR sky130_fd_sc_hd__decap_3
XFILLER_0_6_29 VPWR VGND VPWR VGND sky130_ef_sc_hd__decap_12
XTAP_TAPCELL_ROW_64_458 VGND VPWR sky130_fd_sc_hd__tapvpwrvgnd_1
XFILLER_0_13_9 VGND VGND VPWR VPWR sky130_fd_sc_hd__fill_1
XFILLER_0_16_41 VPWR VGND VPWR VGND sky130_ef_sc_hd__decap_12
XFILLER_0_16_85 VPWR VGND VPWR VGND sky130_ef_sc_hd__decap_12
XPHY_EDGE_ROW_6_Right_6 VGND VGND VPWR VPWR sky130_fd_sc_hd__decap_3
XFILLER_0_12_121 VPWR VGND VPWR VGND sky130_ef_sc_hd__decap_12
XFILLER_0_12_165 VPWR VGND VPWR VGND sky130_ef_sc_hd__decap_12
XFILLER_0_57_81 VPWR VGND VPWR VGND sky130_ef_sc_hd__decap_12
XTAP_TAPCELL_ROW_55_414 VGND VPWR sky130_fd_sc_hd__tapvpwrvgnd_1
XFILLER_0_50_216 VPWR VGND VPWR VGND sky130_ef_sc_hd__decap_12
XFILLER_0_35_279 VGND VGND VPWR VPWR sky130_fd_sc_hd__fill_1
XFILLER_0_7_181 VPWR VGND VPWR VGND sky130_ef_sc_hd__decap_12
Xoutput76 net76 VGND VGND VPWR VPWR c[1] sky130_fd_sc_hd__buf_2
Xoutput65 net65 VGND VGND VPWR VPWR c[0] sky130_fd_sc_hd__buf_2
Xoutput87 net87 VGND VGND VPWR VPWR c[2] sky130_fd_sc_hd__buf_2
XPHY_EDGE_ROW_33_Left_98 VGND VGND VPWR VPWR sky130_fd_sc_hd__decap_3
XFILLER_0_53_28 VPWR VGND VPWR VGND sky130_ef_sc_hd__decap_12
XPHY_EDGE_ROW_59_Right_59 VGND VGND VPWR VPWR sky130_fd_sc_hd__decap_3
XFILLER_0_41_249 VGND VGND VPWR VPWR sky130_fd_sc_hd__decap_6
XFILLER_0_41_205 VGND VGND VPWR VPWR sky130_fd_sc_hd__decap_3
XFILLER_0_11_6 VGND VGND VPWR VPWR sky130_fd_sc_hd__decap_4
XFILLER_0_17_279 VGND VGND VPWR VPWR sky130_fd_sc_hd__fill_1
XFILLER_0_4_195 VGND VGND VPWR VPWR sky130_fd_sc_hd__fill_1
X_292_ _110_ _113_ VGND VGND VPWR VPWR net81 sky130_fd_sc_hd__xor2_1
XFILLER_0_23_205 VPWR VGND VPWR VGND sky130_ef_sc_hd__decap_12
XFILLER_0_64_27 VGND VGND VPWR VPWR sky130_fd_sc_hd__fill_1
XFILLER_0_59_6 VPWR VGND VPWR VGND sky130_ef_sc_hd__decap_12
XFILLER_0_22_271 VPWR VGND VPWR VGND sky130_ef_sc_hd__decap_12
XFILLER_0_38_83 VGND VGND VPWR VPWR sky130_fd_sc_hd__fill_1
XFILLER_0_64_149 VPWR VGND VPWR VGND sky130_ef_sc_hd__decap_12
XFILLER_0_49_113 VPWR VGND VPWR VGND sky130_ef_sc_hd__decap_12
XTAP_TAPCELL_ROW_5_164 VGND VPWR sky130_fd_sc_hd__tapvpwrvgnd_1
XFILLER_0_13_293 VGND VGND VPWR VPWR sky130_fd_sc_hd__decap_6
XTAP_TAPCELL_ROW_28_277 VGND VPWR sky130_fd_sc_hd__tapvpwrvgnd_1
XFILLER_0_55_149 VPWR VGND VPWR VGND sky130_ef_sc_hd__decap_12
XFILLER_0_55_105 VGND VGND VPWR VPWR sky130_fd_sc_hd__decap_6
XFILLER_0_50_29 VPWR VGND VPWR VGND sky130_ef_sc_hd__decap_12
X_275_ _097_ _098_ VGND VGND VPWR VPWR _099_ sky130_fd_sc_hd__nand2_1
X_344_ net27 net59 _017_ VGND VGND VPWR VPWR _153_ sky130_fd_sc_hd__a21oi_1
XFILLER_0_63_193 VPWR VGND VPWR VGND sky130_ef_sc_hd__decap_12
XPHY_EDGE_ROW_20_Left_85 VGND VGND VPWR VPWR sky130_fd_sc_hd__decap_3
XTAP_TAPCELL_ROW_19_233 VGND VPWR sky130_fd_sc_hd__tapvpwrvgnd_1
XFILLER_0_24_41 VGND VGND VPWR VPWR sky130_fd_sc_hd__decap_8
XFILLER_0_24_85 VPWR VGND VPWR VGND sky130_ef_sc_hd__decap_12
XFILLER_0_49_93 VPWR VGND VPWR VGND sky130_ef_sc_hd__decap_12
XTAP_TAPCELL_ROW_2_145 VGND VPWR sky130_fd_sc_hd__tapvpwrvgnd_1
XFILLER_0_37_149 VPWR VGND VPWR VGND sky130_ef_sc_hd__decap_12
XFILLER_0_37_105 VGND VGND VPWR VPWR sky130_fd_sc_hd__decap_6
XFILLER_0_60_141 VPWR VGND VPWR VGND sky130_ef_sc_hd__decap_12
XFILLER_0_45_193 VPWR VGND VPWR VGND sky130_ef_sc_hd__decap_12
XFILLER_0_29_19 VGND VGND VPWR VPWR sky130_fd_sc_hd__decap_8
XFILLER_0_45_29 VGND VGND VPWR VPWR sky130_fd_sc_hd__fill_1
XFILLER_0_61_39 VPWR VGND VPWR VGND sky130_ef_sc_hd__decap_12
X_327_ _141_ _142_ VGND VGND VPWR VPWR _143_ sky130_fd_sc_hd__nand2_1
X_189_ net30 net62 VGND VGND VPWR VPWR _022_ sky130_fd_sc_hd__or2_1
X_258_ net13 net45 VGND VGND VPWR VPWR _084_ sky130_fd_sc_hd__nand2_1
XFILLER_0_9_18 VPWR VGND VPWR VGND sky130_ef_sc_hd__decap_12
XFILLER_0_3_249 VPWR VGND VPWR VGND sky130_ef_sc_hd__decap_12
XFILLER_0_3_205 VPWR VGND VPWR VGND sky130_ef_sc_hd__decap_12
XFILLER_0_10_65 VPWR VGND VPWR VGND sky130_ef_sc_hd__decap_12
XTAP_TAPCELL_ROW_47_372 VGND VPWR sky130_fd_sc_hd__tapvpwrvgnd_1
XFILLER_0_29_7 VPWR VGND VPWR VGND sky130_ef_sc_hd__decap_12
XFILLER_0_19_105 VGND VGND VPWR VPWR sky130_fd_sc_hd__decap_6
XFILLER_0_19_149 VPWR VGND VPWR VGND sky130_ef_sc_hd__decap_12
XFILLER_0_42_141 VPWR VGND VPWR VGND sky130_ef_sc_hd__decap_12
XFILLER_0_27_193 VPWR VGND VPWR VGND sky130_ef_sc_hd__decap_12
XFILLER_0_56_277 VPWR VGND VPWR VGND sky130_ef_sc_hd__decap_12
XFILLER_0_56_233 VPWR VGND VPWR VGND sky130_ef_sc_hd__decap_12
XFILLER_0_24_141 VPWR VGND VPWR VGND sky130_ef_sc_hd__decap_12
XFILLER_0_41_6 VPWR VGND VPWR VGND sky130_ef_sc_hd__decap_12
XFILLER_0_46_83 VGND VGND VPWR VPWR sky130_fd_sc_hd__fill_1
XTAP_TAPCELL_ROW_50_389 VGND VPWR sky130_fd_sc_hd__tapvpwrvgnd_1
XPHY_EDGE_ROW_42_Left_107 VGND VGND VPWR VPWR sky130_fd_sc_hd__decap_3
XFILLER_0_30_133 VGND VGND VPWR VPWR sky130_fd_sc_hd__decap_6
XFILLER_0_30_177 VPWR VGND VPWR VGND sky130_ef_sc_hd__decap_12
XFILLER_0_53_203 VPWR VGND VPWR VGND sky130_ef_sc_hd__decap_12
XPHY_EDGE_ROW_51_Left_116 VGND VGND VPWR VPWR sky130_fd_sc_hd__decap_3
XFILLER_0_42_19 VGND VGND VPWR VPWR sky130_fd_sc_hd__decap_8
XFILLER_0_38_277 VGND VGND VPWR VPWR sky130_fd_sc_hd__decap_8
XFILLER_0_38_233 VPWR VGND VPWR VGND sky130_ef_sc_hd__decap_12
XFILLER_0_53_225 VPWR VGND VPWR VGND sky130_ef_sc_hd__decap_12
XFILLER_0_6_19 VGND VGND VPWR VPWR sky130_fd_sc_hd__decap_8
XFILLER_0_21_111 VGND VGND VPWR VPWR sky130_fd_sc_hd__fill_1
XPHY_EDGE_ROW_60_Left_125 VGND VGND VPWR VPWR sky130_fd_sc_hd__decap_3
XTAP_TAPCELL_ROW_64_459 VGND VPWR sky130_fd_sc_hd__tapvpwrvgnd_1
XFILLER_0_16_53 VPWR VGND VPWR VGND sky130_ef_sc_hd__decap_12
XFILLER_0_16_97 VPWR VGND VPWR VGND sky130_ef_sc_hd__decap_12
XFILLER_0_32_85 VPWR VGND VPWR VGND sky130_ef_sc_hd__decap_12
XFILLER_0_12_133 VGND VGND VPWR VPWR sky130_fd_sc_hd__decap_6
XFILLER_0_12_177 VPWR VGND VPWR VGND sky130_ef_sc_hd__decap_12
XFILLER_0_57_93 VPWR VGND VPWR VGND sky130_ef_sc_hd__decap_12
XFILLER_0_50_228 VPWR VGND VPWR VGND sky130_ef_sc_hd__decap_12
XFILLER_0_7_193 VPWR VGND VPWR VGND sky130_ef_sc_hd__decap_12
XFILLER_0_35_225 VPWR VGND VPWR VGND sky130_ef_sc_hd__decap_12
Xoutput88 net88 VGND VGND VPWR VPWR c[30] sky130_fd_sc_hd__buf_2
Xoutput66 net66 VGND VGND VPWR VPWR c[10] sky130_fd_sc_hd__buf_2
Xoutput77 net77 VGND VGND VPWR VPWR c[20] sky130_fd_sc_hd__buf_2
XFILLER_0_4_141 VPWR VGND VPWR VGND sky130_ef_sc_hd__decap_12
XFILLER_0_17_225 VGND VGND VPWR VPWR sky130_fd_sc_hd__decap_8
X_291_ _111_ _112_ VGND VGND VPWR VPWR _113_ sky130_fd_sc_hd__nand2_1
XFILLER_0_48_29 VPWR VGND VPWR VGND sky130_ef_sc_hd__decap_12
XFILLER_0_23_217 VGND VGND VPWR VPWR sky130_fd_sc_hd__decap_6
XFILLER_0_13_21 VGND VGND VPWR VPWR sky130_fd_sc_hd__fill_1
XFILLER_0_1_111 VGND VGND VPWR VPWR sky130_fd_sc_hd__fill_1
XFILLER_0_22_283 VPWR VGND VPWR VGND sky130_ef_sc_hd__decap_12
XFILLER_0_54_83 VGND VGND VPWR VPWR sky130_fd_sc_hd__fill_1
XFILLER_0_49_169 VPWR VGND VPWR VGND sky130_ef_sc_hd__decap_12
XFILLER_0_49_125 VPWR VGND VPWR VGND sky130_ef_sc_hd__decap_12
XFILLER_0_13_261 VPWR VGND VPWR VGND sky130_ef_sc_hd__decap_12
XFILLER_0_20_209 VPWR VGND VPWR VGND sky130_ef_sc_hd__decap_12
XTAP_TAPCELL_ROW_28_278 VGND VPWR sky130_fd_sc_hd__tapvpwrvgnd_1
XFILLER_0_63_161 VGND VGND VPWR VPWR sky130_fd_sc_hd__decap_6
X_274_ net15 net47 VGND VGND VPWR VPWR _098_ sky130_fd_sc_hd__nand2_1
X_343_ _017_ _152_ VGND VGND VPWR VPWR net91 sky130_fd_sc_hd__nor2_1
XTAP_TAPCELL_ROW_19_234 VGND VPWR sky130_fd_sc_hd__tapvpwrvgnd_1
XFILLER_0_46_139 VGND VGND VPWR VPWR sky130_fd_sc_hd__fill_1
XFILLER_0_24_97 VPWR VGND VPWR VGND sky130_ef_sc_hd__decap_12
XFILLER_0_40_85 VPWR VGND VPWR VGND sky130_ef_sc_hd__decap_12
XFILLER_0_40_41 VPWR VGND VPWR VGND sky130_ef_sc_hd__decap_12
XFILLER_0_4_85 VPWR VGND VPWR VGND sky130_ef_sc_hd__decap_12
XFILLER_0_4_41 VPWR VGND VPWR VGND sky130_ef_sc_hd__decap_12
XFILLER_0_10_253 VPWR VGND VPWR VGND sky130_ef_sc_hd__decap_12
XTAP_TAPCELL_ROW_2_146 VGND VPWR sky130_fd_sc_hd__tapvpwrvgnd_1
XFILLER_0_60_120 VGND VGND VPWR VPWR sky130_fd_sc_hd__fill_1
XFILLER_0_52_109 VPWR VGND VPWR VGND sky130_ef_sc_hd__decap_12
XFILLER_0_45_161 VGND VGND VPWR VPWR sky130_fd_sc_hd__decap_6
XFILLER_0_60_197 VPWR VGND VPWR VGND sky130_ef_sc_hd__decap_12
XFILLER_0_60_153 VPWR VGND VPWR VGND sky130_ef_sc_hd__decap_12
X_326_ net24 net56 VGND VGND VPWR VPWR _142_ sky130_fd_sc_hd__or2_1
XTAP_TAPCELL_ROW_16_215 VGND VPWR sky130_fd_sc_hd__tapvpwrvgnd_1
XFILLER_0_28_139 VGND VGND VPWR VPWR sky130_fd_sc_hd__fill_1
X_188_ net30 net62 VGND VGND VPWR VPWR _021_ sky130_fd_sc_hd__nand2_1
X_257_ net13 net45 VGND VGND VPWR VPWR _083_ sky130_fd_sc_hd__or2_1
XFILLER_0_3_217 VGND VGND VPWR VPWR sky130_fd_sc_hd__decap_6
XFILLER_0_10_77 VGND VGND VPWR VPWR sky130_fd_sc_hd__decap_6
XTAP_TAPCELL_ROW_47_373 VGND VPWR sky130_fd_sc_hd__tapvpwrvgnd_1
XFILLER_0_27_161 VGND VGND VPWR VPWR sky130_fd_sc_hd__decap_6
XFILLER_0_34_109 VPWR VGND VPWR VGND sky130_ef_sc_hd__decap_12
XFILLER_0_42_197 VPWR VGND VPWR VGND sky130_ef_sc_hd__decap_12
XFILLER_0_42_153 VPWR VGND VPWR VGND sky130_ef_sc_hd__decap_12
XFILLER_0_0_209 VPWR VGND VPWR VGND sky130_ef_sc_hd__decap_12
XTAP_TAPCELL_ROW_21_240 VGND VPWR sky130_fd_sc_hd__tapvpwrvgnd_1
XFILLER_0_56_29 VPWR VGND VPWR VGND sky130_ef_sc_hd__decap_12
XFILLER_0_56_18 VGND VGND VPWR VPWR sky130_fd_sc_hd__decap_8
XFILLER_0_56_289 VGND VGND VPWR VPWR sky130_fd_sc_hd__decap_8
XFILLER_0_56_245 VGND VGND VPWR VPWR sky130_fd_sc_hd__decap_6
X_309_ _119_ _124_ _120_ VGND VGND VPWR VPWR _128_ sky130_fd_sc_hd__a21o_1
XFILLER_0_16_109 VPWR VGND VPWR VGND sky130_ef_sc_hd__decap_12
XFILLER_0_21_54 VGND VGND VPWR VPWR sky130_fd_sc_hd__fill_2
XFILLER_0_21_87 VPWR VGND VPWR VGND sky130_ef_sc_hd__decap_12
XFILLER_0_24_153 VPWR VGND VPWR VGND sky130_ef_sc_hd__decap_12
XFILLER_0_24_197 VPWR VGND VPWR VGND sky130_ef_sc_hd__decap_12
XFILLER_0_34_6 VPWR VGND VPWR VGND sky130_ef_sc_hd__decap_12
XFILLER_0_62_83 VGND VGND VPWR VPWR sky130_fd_sc_hd__fill_1
XFILLER_0_47_223 VGND VGND VPWR VPWR sky130_fd_sc_hd__fill_1
XTAP_TAPCELL_ROW_35_310 VGND VPWR sky130_fd_sc_hd__tapvpwrvgnd_1
XFILLER_0_30_189 VGND VGND VPWR VPWR sky130_fd_sc_hd__decap_6
XFILLER_0_53_237 VPWR VGND VPWR VGND sky130_ef_sc_hd__decap_12
XFILLER_0_53_215 VGND VGND VPWR VPWR sky130_fd_sc_hd__decap_8
XFILLER_0_38_245 VGND VGND VPWR VPWR sky130_fd_sc_hd__decap_6
XFILLER_0_61_281 VPWR VGND VPWR VGND sky130_ef_sc_hd__decap_12
XFILLER_0_21_167 VGND VGND VPWR VPWR sky130_fd_sc_hd__fill_1
XFILLER_0_16_65 VPWR VGND VPWR VGND sky130_ef_sc_hd__decap_12
XFILLER_0_29_223 VGND VGND VPWR VPWR sky130_fd_sc_hd__fill_1
XFILLER_0_29_245 VPWR VGND VPWR VGND sky130_ef_sc_hd__decap_12
XFILLER_0_52_270 VPWR VGND VPWR VGND sky130_ef_sc_hd__decap_12
XFILLER_0_8_139 VGND VGND VPWR VPWR sky130_fd_sc_hd__fill_1
XFILLER_0_29_289 VGND VGND VPWR VPWR sky130_fd_sc_hd__decap_6
XFILLER_0_32_97 VPWR VGND VPWR VGND sky130_ef_sc_hd__decap_12
XFILLER_0_12_189 VGND VGND VPWR VPWR sky130_fd_sc_hd__decap_6
XFILLER_0_35_237 VPWR VGND VPWR VGND sky130_ef_sc_hd__decap_12
XFILLER_0_43_281 VPWR VGND VPWR VGND sky130_ef_sc_hd__decap_12
XFILLER_0_7_161 VGND VGND VPWR VPWR sky130_fd_sc_hd__decap_6
Xoutput89 net89 VGND VGND VPWR VPWR c[31] sky130_fd_sc_hd__buf_2
Xoutput78 net78 VGND VGND VPWR VPWR c[21] sky130_fd_sc_hd__buf_2
Xoutput67 net67 VGND VGND VPWR VPWR c[11] sky130_fd_sc_hd__buf_2
XFILLER_0_27_31 VPWR VGND VPWR VGND sky130_ef_sc_hd__decap_12
XFILLER_0_7_30 VPWR VGND VPWR VGND sky130_ef_sc_hd__decap_12
XFILLER_0_4_197 VPWR VGND VPWR VGND sky130_ef_sc_hd__decap_12
XFILLER_0_4_153 VPWR VGND VPWR VGND sky130_ef_sc_hd__decap_12
XFILLER_0_25_281 VGND VGND VPWR VPWR sky130_fd_sc_hd__fill_1
XFILLER_0_40_295 VGND VGND VPWR VPWR sky130_fd_sc_hd__fill_1
XFILLER_0_40_284 VGND VGND VPWR VPWR sky130_fd_sc_hd__fill_2
X_290_ net17 net49 VGND VGND VPWR VPWR _112_ sky130_fd_sc_hd__nand2_1
XFILLER_0_64_29 VPWR VGND VPWR VGND sky130_ef_sc_hd__decap_12
XFILLER_0_58_104 VPWR VGND VPWR VGND sky130_ef_sc_hd__decap_12
XFILLER_0_13_55 VGND VGND VPWR VPWR sky130_fd_sc_hd__fill_1
XFILLER_0_22_251 VGND VGND VPWR VPWR sky130_fd_sc_hd__fill_1
XFILLER_0_38_85 VPWR VGND VPWR VGND sky130_ef_sc_hd__decap_12
XFILLER_0_38_41 VGND VGND VPWR VPWR sky130_fd_sc_hd__decap_6
XFILLER_0_1_167 VGND VGND VPWR VPWR sky130_fd_sc_hd__fill_1
XFILLER_0_22_295 VGND VGND VPWR VPWR sky130_fd_sc_hd__fill_1
XFILLER_0_49_137 VPWR VGND VPWR VGND sky130_ef_sc_hd__decap_12
XFILLER_0_57_181 VPWR VGND VPWR VGND sky130_ef_sc_hd__decap_12
XFILLER_0_9_223 VGND VGND VPWR VPWR sky130_fd_sc_hd__fill_1
XFILLER_0_13_273 VGND VGND VPWR VPWR sky130_fd_sc_hd__decap_6
XTAP_TAPCELL_ROW_28_279 VGND VPWR sky130_fd_sc_hd__tapvpwrvgnd_1
X_342_ _003_ _016_ VGND VGND VPWR VPWR _152_ sky130_fd_sc_hd__nor2_1
XFILLER_0_59_18 VPWR VGND VPWR VGND sky130_ef_sc_hd__decap_12
X_273_ net15 net47 VGND VGND VPWR VPWR _097_ sky130_fd_sc_hd__or2_1
XFILLER_0_39_181 VPWR VGND VPWR VGND sky130_ef_sc_hd__decap_12
XFILLER_0_40_53 VPWR VGND VPWR VGND sky130_ef_sc_hd__decap_12
XFILLER_0_24_76 VGND VGND VPWR VPWR sky130_fd_sc_hd__decap_8
XFILLER_0_54_195 VGND VGND VPWR VPWR sky130_fd_sc_hd__fill_1
XFILLER_0_40_97 VPWR VGND VPWR VGND sky130_ef_sc_hd__decap_12
XFILLER_0_10_221 VPWR VGND VPWR VGND sky130_ef_sc_hd__decap_12
XFILLER_0_4_97 VPWR VGND VPWR VGND sky130_ef_sc_hd__decap_12
XFILLER_0_4_53 VPWR VGND VPWR VGND sky130_ef_sc_hd__decap_12
XTAP_TAPCELL_ROW_2_147 VGND VPWR sky130_fd_sc_hd__tapvpwrvgnd_1
XFILLER_0_10_265 VPWR VGND VPWR VGND sky130_ef_sc_hd__decap_12
XFILLER_0_60_165 VPWR VGND VPWR VGND sky130_ef_sc_hd__decap_12
XFILLER_0_5_281 VPWR VGND VPWR VGND sky130_ef_sc_hd__decap_12
X_325_ net24 net56 VGND VGND VPWR VPWR _141_ sky130_fd_sc_hd__nand2_1
XTAP_TAPCELL_ROW_16_216 VGND VPWR sky130_fd_sc_hd__tapvpwrvgnd_1
X_187_ _018_ _019_ VGND VGND VPWR VPWR _020_ sky130_fd_sc_hd__and2_1