*SPEF "ieee 1481-1999"
*DESIGN "PC_Adder"
*DATE "14:06:33 Saturday April 26, 2025"
*VENDOR "The OpenROAD Project"
*PROGRAM "OpenROAD"
*VERSION "b16bda7e82721d10566ff7e2b68f1ff0be9f9e38"
*DESIGN_FLOW "NAME_SCOPE LOCAL" "PIN_CAP NONE"
*DIVIDER /
*DELIMITER :
*BUS_DELIMITER []
*T_UNIT 1 NS
*C_UNIT 1 PF
*R_UNIT 1 OHM
*L_UNIT 1 HENRY

*NAME_MAP
*3 a[0]
*4 a[10]
*5 a[11]
*6 a[12]
*7 a[13]
*8 a[14]
*9 a[15]
*10 a[16]
*11 a[17]
*12 a[18]
*13 a[19]
*14 a[1]
*15 a[20]
*16 a[21]
*17 a[22]
*18 a[23]
*19 a[24]
*20 a[25]
*21 a[26]
*22 a[27]
*23 a[28]
*24 a[29]
*25 a[2]
*26 a[30]
*27 a[31]
*28 a[3]
*29 a[4]
*30 a[5]
*31 a[6]
*32 a[7]
*33 a[8]
*34 a[9]
*35 b[0]
*36 b[10]
*37 b[11]
*38 b[12]
*39 b[13]
*40 b[14]
*41 b[15]
*42 b[16]
*43 b[17]
*44 b[18]
*45 b[19]
*46 b[1]
*47 b[20]
*48 b[21]
*49 b[22]
*50 b[23]
*51 b[24]
*52 b[25]
*53 b[26]
*54 b[27]
*55 b[28]
*56 b[29]
*57 b[2]
*58 b[30]
*59 b[31]
*60 b[3]
*61 b[4]
*62 b[5]
*63 b[6]
*64 b[7]
*65 b[8]
*66 b[9]
*67 c[0]
*68 c[10]
*69 c[11]
*70 c[12]
*71 c[13]
*72 c[14]
*73 c[15]
*74 c[16]
*75 c[17]
*76 c[18]
*77 c[19]
*78 c[1]
*79 c[20]
*80 c[21]
*81 c[22]
*82 c[23]
*83 c[24]
*84 c[25]
*85 c[26]
*86 c[27]
*87 c[28]
*88 c[29]
*89 c[2]
*90 c[30]
*91 c[31]
*92 c[3]
*93 c[4]
*94 c[5]
*95 c[6]
*96 c[7]
*97 c[8]
*98 c[9]
*99 _000_
*100 _001_
*101 _002_
*102 _003_
*103 _004_
*104 _005_
*105 _006_
*106 _007_
*107 _008_
*108 _009_
*109 _010_
*110 _011_
*111 _012_
*112 _013_
*113 _014_
*114 _015_
*115 _016_
*116 _017_
*117 _018_
*118 _019_
*119 _020_
*120 _021_
*121 _022_
*122 _023_
*123 _024_
*124 _025_
*125 _026_
*126 _027_
*127 _028_
*128 _029_
*129 _030_
*130 _031_
*131 _032_
*132 _033_
*133 _034_
*134 _035_
*135 _036_
*136 _037_
*137 _038_
*138 _039_
*139 _040_
*140 _041_
*141 _042_
*142 _043_
*143 _044_
*144 _045_
*145 _046_
*146 _047_
*147 _048_
*148 _049_
*149 _050_
*150 _051_
*151 _052_
*152 _053_
*153 _054_
*154 _055_
*155 _056_
*156 _057_
*157 _058_
*158 _059_
*159 _060_
*160 _061_
*161 _062_
*162 _063_
*163 _064_
*164 _065_
*165 _066_
*166 _067_
*167 _068_
*168 _069_
*169 _070_
*170 _071_
*171 _072_
*172 _073_
*173 _074_
*174 _075_
*175 _076_
*176 _077_
*177 _078_
*178 _079_
*179 _080_
*180 _081_
*181 _082_
*182 _083_
*183 _084_
*184 _085_
*185 _086_
*186 _087_
*187 _088_
*188 _089_
*189 _090_
*190 _091_
*191 _092_
*192 _093_
*193 _094_
*194 _095_
*195 _096_
*196 _097_
*197 _098_
*198 _099_
*199 _100_
*200 _101_
*201 _102_
*202 _103_
*203 _104_
*204 _105_
*205 _106_
*206 _107_
*207 _108_
*208 _109_
*209 _110_
*210 _111_
*211 _112_
*212 _113_
*213 _114_
*214 _115_
*215 _116_
*216 _117_
*217 _118_
*218 _119_
*219 _120_
*220 _121_
*221 _122_
*222 _123_
*223 _124_
*224 _125_
*225 _126_
*226 _127_
*227 _128_
*228 _129_
*229 _130_
*230 _131_
*231 _132_
*232 _133_
*233 _134_
*234 _135_
*235 _136_
*236 _137_
*237 _138_
*238 _139_
*239 _140_
*240 _141_
*241 _142_
*242 _143_
*243 _144_
*244 _145_
*245 _146_
*246 _147_
*247 _148_
*248 _149_
*249 _150_
*250 _151_
*251 _152_
*252 _153_
*253 _154_
*254 _155_
*255 _156_
*256 _157_
*257 _158_
*258 _159_
*259 _160_
*260 _161_
*261 _162_
*262 _163_
*263 net1
*264 net10
*265 net11
*266 net12
*267 net13
*268 net14
*269 net15
*270 net16
*271 net17
*272 net18
*273 net19
*274 net2
*275 net20
*276 net21
*277 net22
*278 net23
*279 net24
*280 net25
*281 net26
*282 net27
*283 net28
*284 net29
*285 net3
*286 net30
*287 net31
*288 net32
*289 net33
*290 net34
*291 net35
*292 net36
*293 net37
*294 net38
*295 net39
*296 net4
*297 net40
*298 net41
*299 net42
*300 net43
*301 net44
*302 net45
*303 net46
*304 net47
*305 net48
*306 net49
*307 net5
*308 net50
*309 net51
*310 net52
*311 net53
*312 net54
*313 net55
*314 net56
*315 net57
*316 net58
*317 net59
*318 net6
*319 net60
*320 net61
*321 net62
*322 net63
*323 net64
*324 net65
*325 net66
*326 net67
*327 net68
*328 net69
*329 net7
*330 net70
*331 net71
*332 net72
*333 net73
*334 net74
*335 net75
*336 net76
*337 net77
*338 net78
*339 net79
*340 net8
*341 net80
*342 net81
*343 net82
*344 net83
*345 net84
*346 net85
*347 net86
*348 net87
*349 net88
*350 net89
*351 net9
*352 net90
*353 net91
*354 net92
*355 net93
*356 net94
*357 net95
*358 net96
*359 FILLER_0_0_105
*360 FILLER_0_0_113
*361 FILLER_0_0_125
*362 FILLER_0_0_132
*363 FILLER_0_0_139
*364 FILLER_0_0_141
*365 FILLER_0_0_15
*366 FILLER_0_0_153
*367 FILLER_0_0_161
*368 FILLER_0_0_167
*369 FILLER_0_0_169
*370 FILLER_0_0_174
*371 FILLER_0_0_182
*372 FILLER_0_0_189
*373 FILLER_0_0_195
*374 FILLER_0_0_197
*375 FILLER_0_0_209
*376 FILLER_0_0_221
*377 FILLER_0_0_225
*378 FILLER_0_0_237
*379 FILLER_0_0_249
*380 FILLER_0_0_253
*381 FILLER_0_0_265
*382 FILLER_0_0_27
*383 FILLER_0_0_277
*384 FILLER_0_0_281
*385 FILLER_0_0_29
*386 FILLER_0_0_293
*387 FILLER_0_0_3
*388 FILLER_0_0_41
*389 FILLER_0_0_53
*390 FILLER_0_0_57
*391 FILLER_0_0_69
*392 FILLER_0_0_81
*393 FILLER_0_0_85
*394 FILLER_0_0_97
*395 FILLER_0_10_109
*396 FILLER_0_10_121
*397 FILLER_0_10_133
*398 FILLER_0_10_139
*399 FILLER_0_10_141
*400 FILLER_0_10_153
*401 FILLER_0_10_165
*402 FILLER_0_10_177
*403 FILLER_0_10_18
*404 FILLER_0_10_189
*405 FILLER_0_10_195
*406 FILLER_0_10_197
*407 FILLER_0_10_209
*408 FILLER_0_10_221
*409 FILLER_0_10_233
*410 FILLER_0_10_245
*411 FILLER_0_10_251
*412 FILLER_0_10_253
*413 FILLER_0_10_26
*414 FILLER_0_10_265
*415 FILLER_0_10_277
*416 FILLER_0_10_289
*417 FILLER_0_10_29
*418 FILLER_0_10_295
*419 FILLER_0_10_41
*420 FILLER_0_10_53
*421 FILLER_0_10_6
*422 FILLER_0_10_65
*423 FILLER_0_10_77
*424 FILLER_0_10_83
*425 FILLER_0_10_85
*426 FILLER_0_10_97
*427 FILLER_0_11_105
*428 FILLER_0_11_111
*429 FILLER_0_11_113
*430 FILLER_0_11_125
*431 FILLER_0_11_137
*432 FILLER_0_11_149
*433 FILLER_0_11_161
*434 FILLER_0_11_167
*435 FILLER_0_11_169
*436 FILLER_0_11_17
*437 FILLER_0_11_181
*438 FILLER_0_11_193
*439 FILLER_0_11_205
*440 FILLER_0_11_217
*441 FILLER_0_11_223
*442 FILLER_0_11_225
*443 FILLER_0_11_23
*444 FILLER_0_11_237
*445 FILLER_0_11_249
*446 FILLER_0_11_261
*447 FILLER_0_11_273
*448 FILLER_0_11_279
*449 FILLER_0_11_281
*450 FILLER_0_11_293
*451 FILLER_0_11_35
*452 FILLER_0_11_47
*453 FILLER_0_11_57
*454 FILLER_0_11_6
*455 FILLER_0_11_69
*456 FILLER_0_11_81
*457 FILLER_0_11_93
*458 FILLER_0_12_109
*459 FILLER_0_12_121
*460 FILLER_0_12_133
*461 FILLER_0_12_139
*462 FILLER_0_12_14
*463 FILLER_0_12_141
*464 FILLER_0_12_153
*465 FILLER_0_12_165
*466 FILLER_0_12_177
*467 FILLER_0_12_189
*468 FILLER_0_12_195
*469 FILLER_0_12_197
*470 FILLER_0_12_209
*471 FILLER_0_12_221
*472 FILLER_0_12_233
*473 FILLER_0_12_245
*474 FILLER_0_12_251
*475 FILLER_0_12_253
*476 FILLER_0_12_265
*477 FILLER_0_12_277
*478 FILLER_0_12_285
*479 FILLER_0_12_294
*480 FILLER_0_12_36
*481 FILLER_0_12_48
*482 FILLER_0_12_60
*483 FILLER_0_12_65
*484 FILLER_0_12_7
*485 FILLER_0_12_80
*486 FILLER_0_12_85
*487 FILLER_0_12_97
*488 FILLER_0_13_105
*489 FILLER_0_13_111
*490 FILLER_0_13_113
*491 FILLER_0_13_125
*492 FILLER_0_13_137
*493 FILLER_0_13_149
*494 FILLER_0_13_15
*495 FILLER_0_13_161
*496 FILLER_0_13_167
*497 FILLER_0_13_169
*498 FILLER_0_13_181
*499 FILLER_0_13_193
*500 FILLER_0_13_201
*501 FILLER_0_13_21
*502 FILLER_0_13_210
*503 FILLER_0_13_222
*504 FILLER_0_13_225
*505 FILLER_0_13_237
*506 FILLER_0_13_249
*507 FILLER_0_13_261
*508 FILLER_0_13_27
*509 FILLER_0_13_273
*510 FILLER_0_13_279
*511 FILLER_0_13_281
*512 FILLER_0_13_293
*513 FILLER_0_13_3
*514 FILLER_0_13_39
*515 FILLER_0_13_51
*516 FILLER_0_13_55
*517 FILLER_0_13_57
*518 FILLER_0_13_69
*519 FILLER_0_13_81
*520 FILLER_0_13_9
*521 FILLER_0_13_93
*522 FILLER_0_14_109
*523 FILLER_0_14_121
*524 FILLER_0_14_133
*525 FILLER_0_14_139
*526 FILLER_0_14_141
*527 FILLER_0_14_153
*528 FILLER_0_14_165
*529 FILLER_0_14_177
*530 FILLER_0_14_18
*531 FILLER_0_14_189
*532 FILLER_0_14_195
*533 FILLER_0_14_197
*534 FILLER_0_14_209
*535 FILLER_0_14_221
*536 FILLER_0_14_233
*537 FILLER_0_14_245
*538 FILLER_0_14_251
*539 FILLER_0_14_253
*540 FILLER_0_14_26
*541 FILLER_0_14_265
*542 FILLER_0_14_277
*543 FILLER_0_14_289
*544 FILLER_0_14_29
*545 FILLER_0_14_295
*546 FILLER_0_14_41
*547 FILLER_0_14_53
*548 FILLER_0_14_6
*549 FILLER_0_14_65
*550 FILLER_0_14_77
*551 FILLER_0_14_83
*552 FILLER_0_14_85
*553 FILLER_0_14_97
*554 FILLER_0_15_105
*555 FILLER_0_15_111
*556 FILLER_0_15_113
*557 FILLER_0_15_125
*558 FILLER_0_15_137
*559 FILLER_0_15_149
*560 FILLER_0_15_161
*561 FILLER_0_15_167
*562 FILLER_0_15_169
*563 FILLER_0_15_18
*564 FILLER_0_15_181
*565 FILLER_0_15_193
*566 FILLER_0_15_205
*567 FILLER_0_15_209
*568 FILLER_0_15_221
*569 FILLER_0_15_225
*570 FILLER_0_15_237
*571 FILLER_0_15_249
*572 FILLER_0_15_261
*573 FILLER_0_15_273
*574 FILLER_0_15_279
*575 FILLER_0_15_281
*576 FILLER_0_15_285
*577 FILLER_0_15_289
*578 FILLER_0_15_30
*579 FILLER_0_15_42
*580 FILLER_0_15_54
*581 FILLER_0_15_6
*582 FILLER_0_15_69
*583 FILLER_0_15_81
*584 FILLER_0_15_93
*585 FILLER_0_16_109
*586 FILLER_0_16_121
*587 FILLER_0_16_133
*588 FILLER_0_16_139
*589 FILLER_0_16_141
*590 FILLER_0_16_153
*591 FILLER_0_16_165
*592 FILLER_0_16_177
*593 FILLER_0_16_18
*594 FILLER_0_16_189
*595 FILLER_0_16_195
*596 FILLER_0_16_197
*597 FILLER_0_16_209
*598 FILLER_0_16_221
*599 FILLER_0_16_233
*600 FILLER_0_16_245
*601 FILLER_0_16_251
*602 FILLER_0_16_253
*603 FILLER_0_16_26
*604 FILLER_0_16_265
*605 FILLER_0_16_284
*606 FILLER_0_16_29
*607 FILLER_0_16_296
*608 FILLER_0_16_41
*609 FILLER_0_16_53
*610 FILLER_0_16_6
*611 FILLER_0_16_65
*612 FILLER_0_16_77
*613 FILLER_0_16_83
*614 FILLER_0_16_85
*615 FILLER_0_16_97
*616 FILLER_0_17_110
*617 FILLER_0_17_113
*618 FILLER_0_17_125
*619 FILLER_0_17_137
*620 FILLER_0_17_149
*621 FILLER_0_17_161
*622 FILLER_0_17_167
*623 FILLER_0_17_169
*624 FILLER_0_17_181
*625 FILLER_0_17_19
*626 FILLER_0_17_193
*627 FILLER_0_17_205
*628 FILLER_0_17_217
*629 FILLER_0_17_223
*630 FILLER_0_17_225
*631 FILLER_0_17_233
*632 FILLER_0_17_238
*633 FILLER_0_17_251
*634 FILLER_0_17_263
*635 FILLER_0_17_275
*636 FILLER_0_17_279
*637 FILLER_0_17_281
*638 FILLER_0_17_293
*639 FILLER_0_17_31
*640 FILLER_0_17_43
*641 FILLER_0_17_55
*642 FILLER_0_17_62
*643 FILLER_0_17_7
*644 FILLER_0_17_74
*645 FILLER_0_17_86
*646 FILLER_0_17_98
*647 FILLER_0_18_109
*648 FILLER_0_18_121
*649 FILLER_0_18_133
*650 FILLER_0_18_139
*651 FILLER_0_18_141
*652 FILLER_0_18_15
*653 FILLER_0_18_153
*654 FILLER_0_18_165
*655 FILLER_0_18_177
*656 FILLER_0_18_189
*657 FILLER_0_18_195
*658 FILLER_0_18_197
*659 FILLER_0_18_209
*660 FILLER_0_18_221
*661 FILLER_0_18_227
*662 FILLER_0_18_235
*663 FILLER_0_18_247
*664 FILLER_0_18_251
*665 FILLER_0_18_253
*666 FILLER_0_18_265
*667 FILLER_0_18_27
*668 FILLER_0_18_277
*669 FILLER_0_18_281
*670 FILLER_0_18_29
*671 FILLER_0_18_293
*672 FILLER_0_18_3
*673 FILLER_0_18_41
*674 FILLER_0_18_53
*675 FILLER_0_18_59
*676 FILLER_0_18_69
*677 FILLER_0_18_81
*678 FILLER_0_18_85
*679 FILLER_0_18_97
*680 FILLER_0_19_105
*681 FILLER_0_19_111
*682 FILLER_0_19_113
*683 FILLER_0_19_125
*684 FILLER_0_19_137
*685 FILLER_0_19_149
*686 FILLER_0_19_161
*687 FILLER_0_19_167
*688 FILLER_0_19_169
*689 FILLER_0_19_181
*690 FILLER_0_19_19
*691 FILLER_0_19_193
*692 FILLER_0_19_205
*693 FILLER_0_19_217
*694 FILLER_0_19_223
*695 FILLER_0_19_225
*696 FILLER_0_19_237
*697 FILLER_0_19_249
*698 FILLER_0_19_25
*699 FILLER_0_19_261
*700 FILLER_0_19_273
*701 FILLER_0_19_279
*702 FILLER_0_19_295
*703 FILLER_0_19_37
*704 FILLER_0_19_49
*705 FILLER_0_19_55
*706 FILLER_0_19_57
*707 FILLER_0_19_69
*708 FILLER_0_19_7
*709 FILLER_0_19_81
*710 FILLER_0_19_93
*711 FILLER_0_1_105
*712 FILLER_0_1_111
*713 FILLER_0_1_113
*714 FILLER_0_1_125
*715 FILLER_0_1_137
*716 FILLER_0_1_149
*717 FILLER_0_1_15
*718 FILLER_0_1_161
*719 FILLER_0_1_167
*720 FILLER_0_1_169
*721 FILLER_0_1_181
*722 FILLER_0_1_193
*723 FILLER_0_1_205
*724 FILLER_0_1_217
*725 FILLER_0_1_223
*726 FILLER_0_1_225
*727 FILLER_0_1_237
*728 FILLER_0_1_249
*729 FILLER_0_1_261
*730 FILLER_0_1_27
*731 FILLER_0_1_273
*732 FILLER_0_1_279
*733 FILLER_0_1_281
*734 FILLER_0_1_293
*735 FILLER_0_1_3
*736 FILLER_0_1_39
*737 FILLER_0_1_51
*738 FILLER_0_1_55
*739 FILLER_0_1_57
*740 FILLER_0_1_69
*741 FILLER_0_1_81
*742 FILLER_0_1_93
*743 FILLER_0_20_109
*744 FILLER_0_20_121
*745 FILLER_0_20_133
*746 FILLER_0_20_139
*747 FILLER_0_20_141
*748 FILLER_0_20_153
*749 FILLER_0_20_16
*750 FILLER_0_20_165
*751 FILLER_0_20_177
*752 FILLER_0_20_189
*753 FILLER_0_20_195
*754 FILLER_0_20_197
*755 FILLER_0_20_209
*756 FILLER_0_20_221
*757 FILLER_0_20_233
*758 FILLER_0_20_245
*759 FILLER_0_20_251
*760 FILLER_0_20_253
*761 FILLER_0_20_265
*762 FILLER_0_20_277
*763 FILLER_0_20_289
*764 FILLER_0_20_295
*765 FILLER_0_20_36
*766 FILLER_0_20_48
*767 FILLER_0_20_6
*768 FILLER_0_20_60
*769 FILLER_0_20_72
*770 FILLER_0_20_85
*771 FILLER_0_20_97
*772 FILLER_0_21_111
*773 FILLER_0_21_113
*774 FILLER_0_21_125
*775 FILLER_0_21_137
*776 FILLER_0_21_149
*777 FILLER_0_21_161
*778 FILLER_0_21_167
*779 FILLER_0_21_169
*780 FILLER_0_21_18
*781 FILLER_0_21_181
*782 FILLER_0_21_193
*783 FILLER_0_21_205
*784 FILLER_0_21_217
*785 FILLER_0_21_223
*786 FILLER_0_21_225
*787 FILLER_0_21_237
*788 FILLER_0_21_249
*789 FILLER_0_21_261
*790 FILLER_0_21_273
*791 FILLER_0_21_279
*792 FILLER_0_21_281
*793 FILLER_0_21_293
*794 FILLER_0_21_34
*795 FILLER_0_21_46
*796 FILLER_0_21_54
*797 FILLER_0_21_57
*798 FILLER_0_21_6
*799 FILLER_0_21_69
*800 FILLER_0_21_77
*801 FILLER_0_21_87
*802 FILLER_0_21_99
*803 FILLER_0_22_100
*804 FILLER_0_22_112
*805 FILLER_0_22_124
*806 FILLER_0_22_136
*807 FILLER_0_22_141
*808 FILLER_0_22_153
*809 FILLER_0_22_165
*810 FILLER_0_22_177
*811 FILLER_0_22_18
*812 FILLER_0_22_189
*813 FILLER_0_22_195
*814 FILLER_0_22_197
*815 FILLER_0_22_209
*816 FILLER_0_22_221
*817 FILLER_0_22_229
*818 FILLER_0_22_239
*819 FILLER_0_22_251
*820 FILLER_0_22_259
*821 FILLER_0_22_26
*822 FILLER_0_22_271
*823 FILLER_0_22_283
*824 FILLER_0_22_29
*825 FILLER_0_22_295
*826 FILLER_0_22_35
*827 FILLER_0_22_47
*828 FILLER_0_22_59
*829 FILLER_0_22_6
*830 FILLER_0_22_71
*831 FILLER_0_22_83
*832 FILLER_0_22_88
*833 FILLER_0_23_105
*834 FILLER_0_23_111
*835 FILLER_0_23_113
*836 FILLER_0_23_125
*837 FILLER_0_23_137
*838 FILLER_0_23_149
*839 FILLER_0_23_15
*840 FILLER_0_23_161
*841 FILLER_0_23_167
*842 FILLER_0_23_169
*843 FILLER_0_23_181
*844 FILLER_0_23_193
*845 FILLER_0_23_205
*846 FILLER_0_23_217
*847 FILLER_0_23_223
*848 FILLER_0_23_225
*849 FILLER_0_23_240
*850 FILLER_0_23_247
*851 FILLER_0_23_259
*852 FILLER_0_23_27
*853 FILLER_0_23_271
*854 FILLER_0_23_284
*855 FILLER_0_23_296
*856 FILLER_0_23_3
*857 FILLER_0_23_32
*858 FILLER_0_23_44
*859 FILLER_0_23_57
*860 FILLER_0_23_69
*861 FILLER_0_23_81
*862 FILLER_0_23_93
*863 FILLER_0_24_109
*864 FILLER_0_24_121
*865 FILLER_0_24_133
*866 FILLER_0_24_139
*867 FILLER_0_24_141
*868 FILLER_0_24_153
*869 FILLER_0_24_165
*870 FILLER_0_24_177
*871 FILLER_0_24_18
*872 FILLER_0_24_189
*873 FILLER_0_24_195
*874 FILLER_0_24_197
*875 FILLER_0_24_209
*876 FILLER_0_24_221
*877 FILLER_0_24_229
*878 FILLER_0_24_237
*879 FILLER_0_24_244
*880 FILLER_0_24_26
*881 FILLER_0_24_260
*882 FILLER_0_24_272
*883 FILLER_0_24_287
*884 FILLER_0_24_29
*885 FILLER_0_24_295
*886 FILLER_0_24_41
*887 FILLER_0_24_49
*888 FILLER_0_24_6
*889 FILLER_0_24_76
*890 FILLER_0_24_85
*891 FILLER_0_24_97
*892 FILLER_0_25_107
*893 FILLER_0_25_111
*894 FILLER_0_25_113
*895 FILLER_0_25_125
*896 FILLER_0_25_137
*897 FILLER_0_25_149
*898 FILLER_0_25_16
*899 FILLER_0_25_161
*900 FILLER_0_25_167
*901 FILLER_0_25_169
*902 FILLER_0_25_181
*903 FILLER_0_25_193
*904 FILLER_0_25_205
*905 FILLER_0_25_217
*906 FILLER_0_25_223
*907 FILLER_0_25_225
*908 FILLER_0_25_23
*909 FILLER_0_25_237
*910 FILLER_0_25_249
*911 FILLER_0_25_261
*912 FILLER_0_25_273
*913 FILLER_0_25_279
*914 FILLER_0_25_281
*915 FILLER_0_25_285
*916 FILLER_0_25_293
*917 FILLER_0_25_35
*918 FILLER_0_25_47
*919 FILLER_0_25_55
*920 FILLER_0_25_57
*921 FILLER_0_25_6
*922 FILLER_0_25_65
*923 FILLER_0_25_71
*924 FILLER_0_25_83
*925 FILLER_0_25_95
*926 FILLER_0_26_109
*927 FILLER_0_26_121
*928 FILLER_0_26_133
*929 FILLER_0_26_139
*930 FILLER_0_26_141
*931 FILLER_0_26_153
*932 FILLER_0_26_165
*933 FILLER_0_26_177
*934 FILLER_0_26_18
*935 FILLER_0_26_189
*936 FILLER_0_26_195
*937 FILLER_0_26_197
*938 FILLER_0_26_209
*939 FILLER_0_26_221
*940 FILLER_0_26_233
*941 FILLER_0_26_245
*942 FILLER_0_26_251
*943 FILLER_0_26_253
*944 FILLER_0_26_26
*945 FILLER_0_26_265
*946 FILLER_0_26_277
*947 FILLER_0_26_289
*948 FILLER_0_26_37
*949 FILLER_0_26_49
*950 FILLER_0_26_6
*951 FILLER_0_26_61
*952 FILLER_0_26_65
*953 FILLER_0_26_73
*954 FILLER_0_26_81
*955 FILLER_0_26_85
*956 FILLER_0_26_97
*957 FILLER_0_27_105
*958 FILLER_0_27_111
*959 FILLER_0_27_113
*960 FILLER_0_27_125
*961 FILLER_0_27_137
*962 FILLER_0_27_149
*963 FILLER_0_27_161
*964 FILLER_0_27_167
*965 FILLER_0_27_169
*966 FILLER_0_27_181
*967 FILLER_0_27_19
*968 FILLER_0_27_193
*969 FILLER_0_27_205
*970 FILLER_0_27_217
*971 FILLER_0_27_223
*972 FILLER_0_27_225
*973 FILLER_0_27_237
*974 FILLER_0_27_249
*975 FILLER_0_27_261
*976 FILLER_0_27_273
*977 FILLER_0_27_279
*978 FILLER_0_27_281
*979 FILLER_0_27_293
*980 FILLER_0_27_31
*981 FILLER_0_27_43
*982 FILLER_0_27_55
*983 FILLER_0_27_57
*984 FILLER_0_27_69
*985 FILLER_0_27_7
*986 FILLER_0_27_81
*987 FILLER_0_27_93
*988 FILLER_0_28_109
*989 FILLER_0_28_121
*990 FILLER_0_28_133
*991 FILLER_0_28_139
*992 FILLER_0_28_141
*993 FILLER_0_28_15
*994 FILLER_0_28_153
*995 FILLER_0_28_165
*996 FILLER_0_28_177
*997 FILLER_0_28_189
*998 FILLER_0_28_195
*999 FILLER_0_28_197
*1000 FILLER_0_28_209
*1001 FILLER_0_28_221
*1002 FILLER_0_28_233
*1003 FILLER_0_28_241
*1004 FILLER_0_28_250
*1005 FILLER_0_28_253
*1006 FILLER_0_28_265
*1007 FILLER_0_28_27
*1008 FILLER_0_28_277
*1009 FILLER_0_28_289
*1010 FILLER_0_28_297
*1011 FILLER_0_28_3
*1012 FILLER_0_28_46
*1013 FILLER_0_28_58
*1014 FILLER_0_28_66
*1015 FILLER_0_28_78
*1016 FILLER_0_28_85
*1017 FILLER_0_28_97
*1018 FILLER_0_29_105
*1019 FILLER_0_29_111
*1020 FILLER_0_29_113
*1021 FILLER_0_29_125
*1022 FILLER_0_29_137
*1023 FILLER_0_29_149
*1024 FILLER_0_29_161
*1025 FILLER_0_29_167
*1026 FILLER_0_29_169
*1027 FILLER_0_29_181
*1028 FILLER_0_29_19
*1029 FILLER_0_29_193
*1030 FILLER_0_29_205
*1031 FILLER_0_29_217
*1032 FILLER_0_29_223
*1033 FILLER_0_29_225
*1034 FILLER_0_29_245
*1035 FILLER_0_29_257
*1036 FILLER_0_29_269
*1037 FILLER_0_29_27
*1038 FILLER_0_29_273
*1039 FILLER_0_29_289
*1040 FILLER_0_29_295
*1041 FILLER_0_29_36
*1042 FILLER_0_29_48
*1043 FILLER_0_29_57
*1044 FILLER_0_29_69
*1045 FILLER_0_29_7
*1046 FILLER_0_29_81
*1047 FILLER_0_29_93
*1048 FILLER_0_2_108
*1049 FILLER_0_2_120
*1050 FILLER_0_2_132
*1051 FILLER_0_2_141
*1052 FILLER_0_2_15
*1053 FILLER_0_2_153
*1054 FILLER_0_2_165
*1055 FILLER_0_2_177
*1056 FILLER_0_2_188
*1057 FILLER_0_2_197
*1058 FILLER_0_2_209
*1059 FILLER_0_2_221
*1060 FILLER_0_2_233
*1061 FILLER_0_2_245
*1062 FILLER_0_2_251
*1063 FILLER_0_2_253
*1064 FILLER_0_2_265
*1065 FILLER_0_2_27
*1066 FILLER_0_2_277
*1067 FILLER_0_2_289
*1068 FILLER_0_2_29
*1069 FILLER_0_2_297
*1070 FILLER_0_2_3
*1071 FILLER_0_2_41
*1072 FILLER_0_2_53
*1073 FILLER_0_2_65
*1074 FILLER_0_2_77
*1075 FILLER_0_2_83
*1076 FILLER_0_2_85
*1077 FILLER_0_2_97
*1078 FILLER_0_30_109
*1079 FILLER_0_30_121
*1080 FILLER_0_30_133
*1081 FILLER_0_30_139
*1082 FILLER_0_30_141
*1083 FILLER_0_30_153
*1084 FILLER_0_30_165
*1085 FILLER_0_30_177
*1086 FILLER_0_30_189
*1087 FILLER_0_30_19
*1088 FILLER_0_30_195
*1089 FILLER_0_30_197
*1090 FILLER_0_30_209
*1091 FILLER_0_30_221
*1092 FILLER_0_30_233
*1093 FILLER_0_30_239
*1094 FILLER_0_30_251
*1095 FILLER_0_30_253
*1096 FILLER_0_30_265
*1097 FILLER_0_30_27
*1098 FILLER_0_30_29
*1099 FILLER_0_30_294
*1100 FILLER_0_30_41
*1101 FILLER_0_30_53
*1102 FILLER_0_30_65
*1103 FILLER_0_30_7
*1104 FILLER_0_30_77
*1105 FILLER_0_30_83
*1106 FILLER_0_30_85
*1107 FILLER_0_30_97
*1108 FILLER_0_31_101
*1109 FILLER_0_31_109
*1110 FILLER_0_31_113
*1111 FILLER_0_31_125
*1112 FILLER_0_31_137
*1113 FILLER_0_31_149
*1114 FILLER_0_31_161
*1115 FILLER_0_31_167
*1116 FILLER_0_31_169
*1117 FILLER_0_31_18
*1118 FILLER_0_31_181
*1119 FILLER_0_31_193
*1120 FILLER_0_31_205
*1121 FILLER_0_31_217
*1122 FILLER_0_31_223
*1123 FILLER_0_31_225
*1124 FILLER_0_31_233
*1125 FILLER_0_31_243
*1126 FILLER_0_31_255
*1127 FILLER_0_31_267
*1128 FILLER_0_31_279
*1129 FILLER_0_31_281
*1130 FILLER_0_31_30
*1131 FILLER_0_31_42
*1132 FILLER_0_31_54
*1133 FILLER_0_31_6
*1134 FILLER_0_31_65
*1135 FILLER_0_31_77
*1136 FILLER_0_31_89
*1137 FILLER_0_32_109
*1138 FILLER_0_32_121
*1139 FILLER_0_32_133
*1140 FILLER_0_32_139
*1141 FILLER_0_32_14
*1142 FILLER_0_32_141
*1143 FILLER_0_32_153
*1144 FILLER_0_32_165
*1145 FILLER_0_32_177
*1146 FILLER_0_32_189
*1147 FILLER_0_32_195
*1148 FILLER_0_32_197
*1149 FILLER_0_32_209
*1150 FILLER_0_32_221
*1151 FILLER_0_32_233
*1152 FILLER_0_32_245
*1153 FILLER_0_32_251
*1154 FILLER_0_32_253
*1155 FILLER_0_32_26
*1156 FILLER_0_32_265
*1157 FILLER_0_32_271
*1158 FILLER_0_32_275
*1159 FILLER_0_32_287
*1160 FILLER_0_32_36
*1161 FILLER_0_32_48
*1162 FILLER_0_32_68
*1163 FILLER_0_32_7
*1164 FILLER_0_32_80
*1165 FILLER_0_32_85
*1166 FILLER_0_32_97
*1167 FILLER_0_33_105
*1168 FILLER_0_33_111
*1169 FILLER_0_33_113
*1170 FILLER_0_33_125
*1171 FILLER_0_33_137
*1172 FILLER_0_33_149
*1173 FILLER_0_33_16
*1174 FILLER_0_33_161
*1175 FILLER_0_33_167
*1176 FILLER_0_33_169
*1177 FILLER_0_33_181
*1178 FILLER_0_33_193
*1179 FILLER_0_33_205
*1180 FILLER_0_33_217
*1181 FILLER_0_33_223
*1182 FILLER_0_33_225
*1183 FILLER_0_33_23
*1184 FILLER_0_33_237
*1185 FILLER_0_33_249
*1186 FILLER_0_33_261
*1187 FILLER_0_33_273
*1188 FILLER_0_33_279
*1189 FILLER_0_33_281
*1190 FILLER_0_33_293
*1191 FILLER_0_33_3
*1192 FILLER_0_33_35
*1193 FILLER_0_33_47
*1194 FILLER_0_33_55
*1195 FILLER_0_33_57
*1196 FILLER_0_33_69
*1197 FILLER_0_33_81
*1198 FILLER_0_33_93
*1199 FILLER_0_34_109
*1200 FILLER_0_34_121
*1201 FILLER_0_34_133
*1202 FILLER_0_34_139
*1203 FILLER_0_34_141
*1204 FILLER_0_34_153
*1205 FILLER_0_34_165
*1206 FILLER_0_34_177
*1207 FILLER_0_34_18
*1208 FILLER_0_34_189
*1209 FILLER_0_34_195
*1210 FILLER_0_34_197
*1211 FILLER_0_34_209
*1212 FILLER_0_34_22
*1213 FILLER_0_34_221
*1214 FILLER_0_34_233
*1215 FILLER_0_34_245
*1216 FILLER_0_34_251
*1217 FILLER_0_34_253
*1218 FILLER_0_34_257
*1219 FILLER_0_34_265
*1220 FILLER_0_34_277
*1221 FILLER_0_34_289
*1222 FILLER_0_34_29
*1223 FILLER_0_34_295
*1224 FILLER_0_34_41
*1225 FILLER_0_34_53
*1226 FILLER_0_34_6
*1227 FILLER_0_34_65
*1228 FILLER_0_34_77
*1229 FILLER_0_34_83
*1230 FILLER_0_34_85
*1231 FILLER_0_34_97
*1232 FILLER_0_35_102
*1233 FILLER_0_35_110
*1234 FILLER_0_35_113
*1235 FILLER_0_35_125
*1236 FILLER_0_35_137
*1237 FILLER_0_35_149
*1238 FILLER_0_35_161
*1239 FILLER_0_35_167
*1240 FILLER_0_35_169
*1241 FILLER_0_35_181
*1242 FILLER_0_35_193
*1243 FILLER_0_35_205
*1244 FILLER_0_35_217
*1245 FILLER_0_35_223
*1246 FILLER_0_35_225
*1247 FILLER_0_35_237
*1248 FILLER_0_35_249
*1249 FILLER_0_35_25
*1250 FILLER_0_35_261
*1251 FILLER_0_35_273
*1252 FILLER_0_35_279
*1253 FILLER_0_35_281
*1254 FILLER_0_35_293
*1255 FILLER_0_35_37
*1256 FILLER_0_35_49
*1257 FILLER_0_35_55
*1258 FILLER_0_35_57
*1259 FILLER_0_35_66
*1260 FILLER_0_35_7
*1261 FILLER_0_35_78
*1262 FILLER_0_35_90
*1263 FILLER_0_36_109
*1264 FILLER_0_36_121
*1265 FILLER_0_36_133
*1266 FILLER_0_36_139
*1267 FILLER_0_36_141
*1268 FILLER_0_36_153
*1269 FILLER_0_36_165
*1270 FILLER_0_36_177
*1271 FILLER_0_36_189
*1272 FILLER_0_36_195
*1273 FILLER_0_36_197
*1274 FILLER_0_36_209
*1275 FILLER_0_36_221
*1276 FILLER_0_36_233
*1277 FILLER_0_36_245
*1278 FILLER_0_36_251
*1279 FILLER_0_36_253
*1280 FILLER_0_36_265
*1281 FILLER_0_36_277
*1282 FILLER_0_36_289
*1283 FILLER_0_36_29
*1284 FILLER_0_36_41
*1285 FILLER_0_36_53
*1286 FILLER_0_36_59
*1287 FILLER_0_36_6
*1288 FILLER_0_36_65
*1289 FILLER_0_36_77
*1290 FILLER_0_36_83
*1291 FILLER_0_36_85
*1292 FILLER_0_36_97
*1293 FILLER_0_37_10
*1294 FILLER_0_37_105
*1295 FILLER_0_37_111
*1296 FILLER_0_37_113
*1297 FILLER_0_37_125
*1298 FILLER_0_37_137
*1299 FILLER_0_37_14
*1300 FILLER_0_37_149
*1301 FILLER_0_37_161
*1302 FILLER_0_37_167
*1303 FILLER_0_37_169
*1304 FILLER_0_37_181
*1305 FILLER_0_37_193
*1306 FILLER_0_37_205
*1307 FILLER_0_37_217
*1308 FILLER_0_37_223
*1309 FILLER_0_37_225
*1310 FILLER_0_37_237
*1311 FILLER_0_37_249
*1312 FILLER_0_37_253
*1313 FILLER_0_37_26
*1314 FILLER_0_37_265
*1315 FILLER_0_37_277
*1316 FILLER_0_37_281
*1317 FILLER_0_37_293
*1318 FILLER_0_37_38
*1319 FILLER_0_37_50
*1320 FILLER_0_37_57
*1321 FILLER_0_37_6
*1322 FILLER_0_37_69
*1323 FILLER_0_37_81
*1324 FILLER_0_37_93
*1325 FILLER_0_38_109
*1326 FILLER_0_38_121
*1327 FILLER_0_38_133
*1328 FILLER_0_38_139
*1329 FILLER_0_38_141
*1330 FILLER_0_38_153
*1331 FILLER_0_38_165
*1332 FILLER_0_38_177
*1333 FILLER_0_38_189
*1334 FILLER_0_38_195
*1335 FILLER_0_38_197
*1336 FILLER_0_38_209
*1337 FILLER_0_38_221
*1338 FILLER_0_38_233
*1339 FILLER_0_38_24
*1340 FILLER_0_38_245
*1341 FILLER_0_38_251
*1342 FILLER_0_38_253
*1343 FILLER_0_38_265
*1344 FILLER_0_38_277
*1345 FILLER_0_38_29
*1346 FILLER_0_38_292
*1347 FILLER_0_38_298
*1348 FILLER_0_38_3
*1349 FILLER_0_38_41
*1350 FILLER_0_38_47
*1351 FILLER_0_38_56
*1352 FILLER_0_38_65
*1353 FILLER_0_38_77
*1354 FILLER_0_38_83
*1355 FILLER_0_38_85
*1356 FILLER_0_38_97
*1357 FILLER_0_39_105
*1358 FILLER_0_39_111
*1359 FILLER_0_39_113
*1360 FILLER_0_39_125
*1361 FILLER_0_39_137
*1362 FILLER_0_39_149
*1363 FILLER_0_39_161
*1364 FILLER_0_39_167
*1365 FILLER_0_39_169
*1366 FILLER_0_39_18
*1367 FILLER_0_39_181
*1368 FILLER_0_39_193
*1369 FILLER_0_39_205
*1370 FILLER_0_39_217
*1371 FILLER_0_39_223
*1372 FILLER_0_39_225
*1373 FILLER_0_39_240
*1374 FILLER_0_39_252
*1375 FILLER_0_39_264
*1376 FILLER_0_39_276
*1377 FILLER_0_39_281
*1378 FILLER_0_39_285
*1379 FILLER_0_39_289
*1380 FILLER_0_39_295
*1381 FILLER_0_39_30
*1382 FILLER_0_39_42
*1383 FILLER_0_39_54
*1384 FILLER_0_39_57
*1385 FILLER_0_39_6
*1386 FILLER_0_39_69
*1387 FILLER_0_39_81
*1388 FILLER_0_39_93
*1389 FILLER_0_3_105
*1390 FILLER_0_3_111
*1391 FILLER_0_3_113
*1392 FILLER_0_3_125
*1393 FILLER_0_3_137
*1394 FILLER_0_3_149
*1395 FILLER_0_3_15
*1396 FILLER_0_3_161
*1397 FILLER_0_3_167
*1398 FILLER_0_3_169
*1399 FILLER_0_3_181
*1400 FILLER_0_3_193
*1401 FILLER_0_3_205
*1402 FILLER_0_3_217
*1403 FILLER_0_3_223
*1404 FILLER_0_3_225
*1405 FILLER_0_3_237
*1406 FILLER_0_3_249
*1407 FILLER_0_3_261
*1408 FILLER_0_3_27
*1409 FILLER_0_3_273
*1410 FILLER_0_3_279
*1411 FILLER_0_3_281
*1412 FILLER_0_3_293
*1413 FILLER_0_3_3
*1414 FILLER_0_3_39
*1415 FILLER_0_3_51
*1416 FILLER_0_3_55
*1417 FILLER_0_3_57
*1418 FILLER_0_3_69
*1419 FILLER_0_3_81
*1420 FILLER_0_3_93
*1421 FILLER_0_40_109
*1422 FILLER_0_40_121
*1423 FILLER_0_40_133
*1424 FILLER_0_40_139
*1425 FILLER_0_40_141
*1426 FILLER_0_40_153
*1427 FILLER_0_40_165
*1428 FILLER_0_40_177
*1429 FILLER_0_40_189
*1430 FILLER_0_40_19
*1431 FILLER_0_40_195
*1432 FILLER_0_40_197
*1433 FILLER_0_40_209
*1434 FILLER_0_40_221
*1435 FILLER_0_40_232
*1436 FILLER_0_40_244
*1437 FILLER_0_40_253
*1438 FILLER_0_40_265
*1439 FILLER_0_40_27
*1440 FILLER_0_40_277
*1441 FILLER_0_40_284
*1442 FILLER_0_40_29
*1443 FILLER_0_40_291
*1444 FILLER_0_40_295
*1445 FILLER_0_40_41
*1446 FILLER_0_40_53
*1447 FILLER_0_40_65
*1448 FILLER_0_40_7
*1449 FILLER_0_40_77
*1450 FILLER_0_40_83
*1451 FILLER_0_40_85
*1452 FILLER_0_40_97
*1453 FILLER_0_41_105
*1454 FILLER_0_41_111
*1455 FILLER_0_41_113
*1456 FILLER_0_41_125
*1457 FILLER_0_41_137
*1458 FILLER_0_41_149
*1459 FILLER_0_41_161
*1460 FILLER_0_41_167
*1461 FILLER_0_41_169
*1462 FILLER_0_41_18
*1463 FILLER_0_41_181
*1464 FILLER_0_41_193
*1465 FILLER_0_41_205
*1466 FILLER_0_41_221
*1467 FILLER_0_41_225
*1468 FILLER_0_41_237
*1469 FILLER_0_41_249
*1470 FILLER_0_41_262
*1471 FILLER_0_41_279
*1472 FILLER_0_41_289
*1473 FILLER_0_41_295
*1474 FILLER_0_41_30
*1475 FILLER_0_41_42
*1476 FILLER_0_41_54
*1477 FILLER_0_41_57
*1478 FILLER_0_41_6
*1479 FILLER_0_41_69
*1480 FILLER_0_41_81
*1481 FILLER_0_41_93
*1482 FILLER_0_42_109
*1483 FILLER_0_42_121
*1484 FILLER_0_42_133
*1485 FILLER_0_42_139
*1486 FILLER_0_42_141
*1487 FILLER_0_42_153
*1488 FILLER_0_42_165
*1489 FILLER_0_42_177
*1490 FILLER_0_42_189
*1491 FILLER_0_42_19
*1492 FILLER_0_42_195
*1493 FILLER_0_42_197
*1494 FILLER_0_42_209
*1495 FILLER_0_42_215
*1496 FILLER_0_42_225
*1497 FILLER_0_42_237
*1498 FILLER_0_42_249
*1499 FILLER_0_42_253
*1500 FILLER_0_42_265
*1501 FILLER_0_42_27
*1502 FILLER_0_42_275
*1503 FILLER_0_42_287
*1504 FILLER_0_42_29
*1505 FILLER_0_42_295
*1506 FILLER_0_42_40
*1507 FILLER_0_42_52
*1508 FILLER_0_42_60
*1509 FILLER_0_42_7
*1510 FILLER_0_42_72
*1511 FILLER_0_42_85
*1512 FILLER_0_42_97
*1513 FILLER_0_43_105
*1514 FILLER_0_43_111
*1515 FILLER_0_43_113
*1516 FILLER_0_43_125
*1517 FILLER_0_43_137
*1518 FILLER_0_43_149
*1519 FILLER_0_43_161
*1520 FILLER_0_43_167
*1521 FILLER_0_43_169
*1522 FILLER_0_43_17
*1523 FILLER_0_43_181
*1524 FILLER_0_43_193
*1525 FILLER_0_43_205
*1526 FILLER_0_43_217
*1527 FILLER_0_43_223
*1528 FILLER_0_43_225
*1529 FILLER_0_43_237
*1530 FILLER_0_43_249
*1531 FILLER_0_43_261
*1532 FILLER_0_43_273
*1533 FILLER_0_43_279
*1534 FILLER_0_43_281
*1535 FILLER_0_43_29
*1536 FILLER_0_43_293
*1537 FILLER_0_43_3
*1538 FILLER_0_43_38
*1539 FILLER_0_43_54
*1540 FILLER_0_43_57
*1541 FILLER_0_43_69
*1542 FILLER_0_43_81
*1543 FILLER_0_43_93
*1544 FILLER_0_44_109
*1545 FILLER_0_44_121
*1546 FILLER_0_44_133
*1547 FILLER_0_44_139
*1548 FILLER_0_44_141
*1549 FILLER_0_44_153
*1550 FILLER_0_44_165
*1551 FILLER_0_44_177
*1552 FILLER_0_44_18
*1553 FILLER_0_44_189
*1554 FILLER_0_44_195
*1555 FILLER_0_44_197
*1556 FILLER_0_44_209
*1557 FILLER_0_44_221
*1558 FILLER_0_44_233
*1559 FILLER_0_44_245
*1560 FILLER_0_44_251
*1561 FILLER_0_44_253
*1562 FILLER_0_44_26
*1563 FILLER_0_44_265
*1564 FILLER_0_44_277
*1565 FILLER_0_44_289
*1566 FILLER_0_44_29
*1567 FILLER_0_44_295
*1568 FILLER_0_44_35
*1569 FILLER_0_44_40
*1570 FILLER_0_44_52
*1571 FILLER_0_44_59
*1572 FILLER_0_44_6
*1573 FILLER_0_44_71
*1574 FILLER_0_44_83
*1575 FILLER_0_44_85
*1576 FILLER_0_44_97
*1577 FILLER_0_45_105
*1578 FILLER_0_45_111
*1579 FILLER_0_45_113
*1580 FILLER_0_45_125
*1581 FILLER_0_45_137
*1582 FILLER_0_45_14
*1583 FILLER_0_45_149
*1584 FILLER_0_45_161
*1585 FILLER_0_45_167
*1586 FILLER_0_45_169
*1587 FILLER_0_45_181
*1588 FILLER_0_45_193
*1589 FILLER_0_45_205